TotalNumberOfSites=6
NumberOfTerms=5

DegreesOfFreedom=1
GeometryKind=ladder
GeometryOptions=ConstantValues
Connectors 1  -1
Connectors 1  -1
LadderLeg=2

DegreesOfFreedom=1
GeometryKind=ladder
GeometryOptions=ConstantValues
Connectors 1  -0.125
Connectors 1  -0.125
LadderLeg=2

DegreesOfFreedom=1
GeometryKind=ladder
GeometryOptions=ConstantValues
Connectors 1  0.5
Connectors 1  0.5
LadderLeg=2

DegreesOfFreedom=1
GeometryKind=ladder
GeometryOptions=ConstantValues
Connectors 1  0.5
Connectors 1  0.5
LadderLeg=2

DegreesOfFreedom=1
GeometryKind=ladder
GeometryOptions=ConstantValues
Connectors 1  0
Connectors 1  0
LadderLeg=2

Model=HubbardOneBandExtendedSuper

hubbardU 6
6 6 6 6 6 6

potentialV 12
0 0 0 0 0 0
0 0 0 0 0 0

InfiniteLoopKeptStates=128
FiniteLoops 4
-4 200 2 4 200 2
-4 200 2 4 200 2

TargetElectronsUp=2
TargetElectronsDown=2
Threads=1

SolverOptions=CorrectionVectorTargeting,twositedmrg,minimizeDisk,restart
CorrectionA=0
Version=version
RestartFilename=data4600.txt
TruncationTolerance=1e-7
LanczosEps=1e-7
TridiagonalEps=1e-7

OutputFile=data4601.txt

DynamicDmrgType=0
TSPSites 1 2
TSPLoops 1 1
TSPProductOrSum=sum
CorrectionVectorFreqType=Real

CorrectionVectorEta=0.08
CorrectionVectorAlgorithm=Krylov
Orbitals=1

GsWeight=0.1
CorrectionVectorOmega=0.275

TSPOperator=raw
RAW_MATRIX
4 4
0 0 0 0
0 0.5 0 0
0 0 -0.5 0
0 0 0 0
FERMIONSIGN=1
JMVALUES 2 0 0
AngularFactor=1

#ci dmrg arguments="<gs|sz|P1>,<gs|sz|P2>,<gs|sz|P3>"
#ci CollectBrakets 0
